
tmpdir/tls-dynamic-o32:     file format elf32-tradbigmips

DYNAMIC RELOCATION RECORDS
OFFSET +TYPE +VALUE
00000000 R_MIPS_NONE       \*ABS\*
10000030 R_MIPS_TLS_DTPMOD32  tlsvar_gd
10000034 R_MIPS_TLS_DTPREL32  tlsvar_gd
10000040 R_MIPS_TLS_TPREL32  tlsvar_ie


Contents of section .got:
 10000020 00000000 80000000 004004bc ffff900c  .........@......
 10000030 00000000 00000000 00000001 00000000  ................
 10000040 00000000 00000001 ffff8008           ............    
